examples/national_grid/ngt-2009_10wp.raw
0,   100.00, 30 / PSS(tm)E-30 RAW created by Pylon (201004220833).
 NGET-2009_10wp
 878 BUSES, 1264 BRANCHES
     1,'COWL      ',  400.0000,1,     0.000,  -200.000,   1,   1,     1.000,     0.000   1
     2,'KILS      ',  400.0000,1,     0.000,     0.000,   1,   1,     1.000,     0.000   1
     3,'CLEV      ',  400.0000,1,     0.000,     0.000,   1,   1,     1.000,     0.000   1
     4,'BRLE      ',  400.0000,1,     0.000,     0.000,   1,   1,     1.000,     0.000   1
     5,'CANT      ',  400.0000,1,     0.000,     0.000,   1,   1,     1.000,     0.000   1
     6,'HAMB      ',  400.0000,1,     0.000,     0.000,   1,   1,     1.000,     0.000   1
     7,'FALL      ',  400.0000,1,     0.000,     0.000,   1,   1,     1.000,     0.000   1
     8,'SHRE      ',  400.0000,1,     0.000,     0.000,   1,   1,     1.000,     0.000   1
     9,'NFLE      ',  400.0000,1,     0.000,     0.000,   1,   1,     1.000,     0.000   1
    10,'BARK      ',  400.0000,1,     0.000,     0.000,   1,   1,     1.000,     0.000   1
    11,'PENN      ',  400.0000,1,     0.000,     0.000,   1,   1,     1.000,     0.000   1
    12,'HAMH      ',  400.0000,1,     0.000,   450.000,   1,   1,     1.000,     0.000   1
    13,'MONF      ',  400.0000,1,     0.000,     0.000,   1,   1,     1.000,     0.000   1
    14,'IMPP      ',  400.0000,1,     0.000,     0.000,   1,   1,     1.000,     0.000   1
    15,'HINP      ',  400.0000,2,     0.000,     0.000,   1,   1,     1.000,     0.000   1
    16,'MAWO      ',  400.0000,2,     0.000,     0.000,   1,   1,     1.000,     0.000   1
    17,'HUMR      ',  400.0000,2,     0.000,     0.000,   1,   1,     1.000,     0.000   1
    18,'SPLN      ',  400.0000,2,     0.000,     0.000,   1,   1,     1.000,     0.000   1
    19,'HUER      ',  400.0000,2,     0.000,     0.000,   1,   1,     1.000,     0.000   1
    20,'KEMS      ',  400.0000,1,     0.000,     0.000,   1,   1,     1.000,     0.000   1
    21,'IRON      ',  400.0000,2,     0.000,   225.000,   1,   1,     1.000,     0.000   1
    22,'MOFF      ',  400.0000,1,     0.000,     0.000,   1,   1,     1.000,     0.000   1
    23,'GREN      ',  400.0000,1,     0.000,   900.000,   1,   1,     1.000,     0.000   1
    24,'MANN      ',  400.0000,1,     0.000,   300.000,   1,   1,     1.000,     0.000   1
    25,'HAWP      ',  400.0000,1,     0.000,     0.000,   1,   1,     1.000,     0.000   1
    26,'LACK      ',  400.0000,1,     0.000,     0.000,   1,   1,     1.000,     0.000   1
    27,'NEIL      ',  400.0000,1,     0.000,     0.000,   1,   1,     1.000,     0.000   1
    28,'BLYT      ',  400.0000,1,     0.000,     0.000,   1,   1,     1.000,     0.000   1
    29,'CULJ      ',  400.0000,1,     0.000,     0.000,   1,   1,     1.000,     0.000   1
    30,'FAUG      ',  400.0000,1,     0.000,     0.000,   1,   1,     1.000,     0.000   1
    31,'PADI      ',  400.0000,1,     0.000,     0.000,   1,   1,     1.000,     0.000   1
    32,'BOLN      ',  400.0000,1,     0.000,   225.000,   1,   1,     1.000,     0.000   1
    33,'EXET      ',  400.0000,1,     0.000,   360.000,   1,   1,     1.000,     0.000   1
    34,'TODP      ',  400.0000,1,     0.000,     0.000,   1,   1,     1.000,     0.000   1
    35,'ENDE      ',  400.0000,1,     0.000,   450.000,   1,   1,     1.000,     0.000   1
    36,'HIGM      ',  400.0000,1,     0.000,     0.000,   1,   1,     1.000,     0.000   1
    37,'NORW      ',  400.0000,1,     0.000,     0.000,   1,   1,     1.000,     0.000   1
    38,'EGGB      ',  400.0000,2,     0.000,     0.000,   1,   1,     1.000,     0.000   1
    39,'ABHA      ',  400.0000,1,     0.000,     0.000,   1,   1,     1.000,     0.000   1
    40,'NORT      ',  400.0000,1,     0.000,     0.000,   1,   1,     1.000,     0.000   1
    41,'OSBA      ',  400.0000,1,     0.000,     0.000,   1,   1,     1.000,     0.000   1
    42,'SPEN      ',  400.0000,1,     0.000,     0.000,   1,   1,     1.000,     0.000   1
    43,'QUER      ',  400.0000,1,     0.000,     0.000,   1,   1,     1.000,     0.000   1
    44,'RASS      ',  400.0000,1,     0.000,     0.000,   1,   1,     1.000,     0.000   1
    45,'HIRN      ',  400.0000,1,     0.000,     0.000,   1,   1,     1.000,     0.000   1
    46,'KILL      ',  400.0000,2,     0.000,     0.000,   1,   1,     1.000,     0.000   1
    47,'LITB      ',  400.0000,2,     0.000,     0.000,   1,   1,     1.000,     0.000   1
    48,'TREU      ',  400.0000,1,     0.000,     0.000,   1,   1,     1.000,     0.000   1
    49,'RATS      ',  400.0000,2,     0.000,     0.000,   1,   1,     1.000,     0.000   1
    50,'HAKB      ',  400.0000,1,     0.000,     0.000,   1,   1,     1.000,     0.000   1
    51,'DINO      ',  400.0000,2,     0.000,     0.000,   1,   1,     1.000,     0.000   1
    52,'HUTT      ',  400.0000,1,     0.000,     0.000,   1,   1,     1.000,     0.000   1
    53,'COTT      ',  400.0000,2,     0.000,     0.000,   1,   1,     1.000,     0.000   1
    54,'STAY      ',  400.0000,2,     0.000,   225.000,   1,   1,     1.000,     0.000   1
    55,'BURW      ',  400.0000,1,     0.000,     0.000,   1,   1,     1.000,     0.000   1
    56,'THTO      ',  400.0000,1,     0.000,     0.000,   1,   1,     1.000,     0.000   1
    57,'CHIC      ',  400.0000,1,     0.000,   225.000,   1,   1,     1.000,     0.000   1
    58,'SEAB      ',  400.0000,2,     0.000,     0.000,   1,   1,     1.000,     0.000   1
    59,'STAL      ',  400.0000,1,     0.000,     0.000,   1,   1,     1.000,     0.000   1
    60,'STAH      ',  400.0000,1,     0.000,     0.000,   1,   1,     1.000,     0.000   1
    61,'IVER      ',  400.0000,1,     0.000,     0.000,   1,   1,     1.000,     0.000   1
    62,'BRFO      ',  400.0000,1,     0.000,     0.000,   1,   1,     1.000,     0.000   1
    63,'BEDD      ',  400.0000,1,     0.000,     0.000,   1,   1,     1.000,     0.000   1
    64,'KINO      ',  400.0000,2,     0.000,     0.000,   1,   1,     1.000,     0.000   1
    65,'KEAD      ',  400.0000,2,     0.000,     0.000,   1,   1,     1.000,     0.000   1
    66,'TAUN      ',  400.0000,1,     0.000,     0.000,   1,   1,     1.000,     0.000   1
    67,'DEVM      ',  400.0000,1,     0.000,     0.000,   1,   1,     1.000,     0.000   1
    68,'DENN      ',  400.0000,1,     0.000,     0.000,   1,   1,     1.000,     0.000   1
    69,'NINF      ',  400.0000,1,     0.000,   150.000,   1,   1,     1.000,     0.000   1
    70,'WHAM      ',  400.0000,1,     0.000,   225.000,   1,   1,     1.000,     0.000   1
    71,'TILB      ',  400.0000,1,     0.000,     0.000,   1,   1,     1.000,     0.000   1
    72,'DAIN      ',  400.0000,1,     0.000,     0.000,   1,   1,     1.000,     0.000   1
    73,'SALH      ',  400.0000,1,     0.000,     0.000,   1,   1,     1.000,     0.000   1
    74,'FAWL      ',  400.0000,2,     0.000,     0.000,   1,   1,     1.000,     0.000   1
    75,'LOVE      ',  400.0000,1,     0.000,   175.000,   1,   1,     1.000,     0.000   1
    76,'BICF      ',  400.0000,1,     0.000,     0.000,   1,   1,     1.000,     0.000   1
    77,'PENT      ',  400.0000,1,     0.000,  -200.000,   1,   1,     1.000,     0.000   1
    78,'CRYR      ',  400.0000,1,     0.000,     0.000,   1,   1,     1.000,     0.000   1
    79,'WBUR      ',  400.0000,2,     0.000,  -185.000,   1,   1,     1.000,     0.000   1
    80,'WHSO      ',  400.0000,1,     0.000,     0.000,   1,   1,     1.000,     0.000   1
    81,'CAPE      ',  400.0000,1,     0.000,     0.000,   1,   1,     1.000,     0.000   1
    82,'ELST      ',  400.0000,1,     0.000,  -200.000,   1,   1,     1.000,     0.000   1
    83,'SIZE      ',  400.0000,2,     0.000,     0.000,   1,   1,     1.000,     0.000   1
    84,'SJOW      ',  400.0000,1,     0.000,  -200.000,   1,   1,     1.000,     0.000   1
    85,'MELK      ',  400.0000,1,     0.000,  -200.000,   1,   1,     1.000,     0.000   1
    86,'MEDW      ',  400.0000,2,     0.000,     0.000,   1,   1,     1.000,     0.000   1
    87,'SHBA      ',  400.0000,2,     0.000,     0.000,   1,   1,     1.000,     0.000   1
    88,'LEIB      ',  400.0000,1,     0.000,     0.000,   1,   1,     1.000,     0.000   1
    89,'CREB      ',  400.0000,1,     0.000,     0.000,   1,   1,     1.000,     0.000   1
    90,'SWAN      ',  400.0000,1,     0.000,     0.000,   1,   1,     1.000,     0.000   1
    91,'HARK      ',  400.0000,1,     0.000,   225.000,   1,   1,     1.000,     0.000   1
    92,'COSO      ',  400.0000,2,     0.000,     0.000,   1,   1,     1.000,     0.000   1
    93,'WYLF      ',  400.0000,2,     0.000,    36.000,   1,   1,     1.000,     0.000   1
    94,'DEES      ',  400.0000,2,     0.000,     0.000,   1,   1,     1.000,     0.000   1
    95,'GRNA      ',  400.0000,1,     0.000,     0.000,   1,   1,     1.000,     0.000   1
    96,'AXMI      ',  400.0000,1,     0.000,     0.000,   1,   1,     1.000,     0.000   1
    97,'NURS      ',  400.0000,1,     0.000,     0.000,   1,   1,     1.000,     0.000   1
    98,'FECK      ',  400.0000,1,     0.000,     0.000,   1,   1,     1.000,     0.000   1
    99,'EASO      ',  400.0000,1,     0.000,     0.000,   1,   1,     1.000,     0.000   1
   100,'LAND      ',  400.0000,1,     0.000,     0.000,   1,   1,     1.000,     0.000   1
   101,'DIDC      ',  400.0000,2,     0.000,     0.000,   1,   1,     1.000,     0.000   1
   102,'TORN      ',  400.0000,2,     0.000,  -300.000,   1,   1,     1.000,     0.000   1
   103,'GRAI      ',  400.0000,2,     0.000,     0.000,   1,   1,     1.000,     0.000   1
   104,'STWB      ',  400.0000,1,     0.000,     0.000,   1,   1,     1.000,     0.000   1
   105,'BONB      ',  400.0000,1,     0.000,     0.000,   1,   1,     1.000,     0.000   1
   106,'COCK      ',  400.0000,1,     0.000,     0.000,   1,   1,     1.000,     0.000   1
   107,'ECLA      ',  400.0000,1,     0.000,   600.000,   1,   1,     1.000,     0.000   1
   108,'RUGE      ',  400.0000,2,     0.000,     0.000,   1,   1,     1.000,     0.000   1
   109,'CARR      ',  400.0000,1,     0.000,     0.000,   1,   1,     1.000,     0.000   1
   110,'DUNG      ',  400.0000,2,     0.000,     0.000,   1,   1,     1.000,     0.000   1
   111,'DRAX      ',  400.0000,2,     0.000,     0.000,   1,   1,     1.000,     0.000   1
   112,'PEWO      ',  400.0000,1,     0.000,     0.000,   1,   1,     1.000,     0.000   1
   113,'DAMC      ',  400.0000,2,     0.000,     0.000,   1,   1,     1.000,     0.000   1
   114,'BRAW      ',  400.0000,1,     0.000,     0.000,   1,   1,     1.000,     0.000   1
   115,'STSB      ',  400.0000,1,     0.000,     0.000,   1,   1,     1.000,     0.000   1
   116,'DRAK      ',  400.0000,1,     0.000,   450.000,   1,   1,     1.000,     0.000   1
   117,'STHA      ',  400.0000,1,     0.000,     0.000,   1,   1,     1.000,     0.000   1
   118,'LEGA      ',  400.0000,1,     0.000,   225.000,   1,   1,     1.000,     0.000   1
   119,'HEYS      ',  400.0000,2,     0.000,     0.000,   1,   1,     1.000,     0.000   1
   120,'ALVE      ',  400.0000,1,     0.000,     0.000,   1,   1,     1.000,     0.000   1
   121,'TRAW      ',  400.0000,1,     0.000,     0.000,   1,   1,     1.000,     0.000   1
   122,'OLDB      ',  400.0000,1,     0.000,     0.000,   1,   1,     1.000,     0.000   1
   123,'WILE      ',  400.0000,1,     0.000,   600.000,   1,   1,     1.000,     0.000   1
   124,'ECCL      ',  400.0000,1,     0.000,     0.000,   1,   1,     1.000,     0.000   1
   125,'ERRO      ',  400.0000,1,     0.000,     0.000,   1,   1,     1.000,     0.000   1
   126,'MITY      ',  400.0000,1,     0.000,     0.000,   1,   1,     1.000,     0.000   1
   127,'HACK      ',  400.0000,1,     0.000,     0.000,   1,   1,     1.000,     0.000   1
   128,'WALH      ',  400.0000,1,     0.000,     0.000,   1,   1,     1.000,     0.000   1
   129,'PAFB      ',  400.0000,1,     0.000,     0.000,   1,   1,     1.000,     0.000   1
   130,'INKI      ',  400.0000,1,     0.000,     0.000,   1,   1,     1.000,     0.000   1
   131,'FERR      ',  400.0000,1,     0.000,     0.000,   1,   1,     1.000,     0.000   1
   132,'WALP      ',  400.0000,1,     0.000,    10.200,   1,   1,     1.000,     0.000   1
   133,'STEW      ',  400.0000,1,     0.000,     0.000,   1,   1,     1.000,     0.000   1
   134,'ELVA      ',  400.0000,1,     0.000,     0.000,   1,   1,     1.000,     0.000   1
   135,'SING      ',  400.0000,1,     0.000,     0.000,   1,   1,     1.000,     0.000   1
   136,'WALX      ',  400.0000,1,     0.000,     0.000,   1,   1,     1.000,     0.000   1
   137,'THOM      ',  400.0000,1,     0.000,  -200.000,   1,   1,     1.000,     0.000   1
   138,'NEEP      ',  400.0000,1,     0.000,     0.000,   1,   1,     1.000,     0.000   1
   139,'WTHU      ',  400.0000,1,     0.000,     0.000,   1,   1,     1.000,     0.000   1
   140,'CELL      ',  400.0000,1,     0.000,   750.000,   1,   1,     1.000,     0.000   1
   141,'COAL      ',  400.0000,1,     0.000,     0.000,   1,   1,     1.000,     0.000   1
   142,'ROCH      ',  400.0000,1,     0.000,     0.000,   1,   1,     1.000,     0.000   1
   143,'PELH      ',  400.0000,1,     0.000,   300.000,   1,   1,     1.000,     0.000   1
   144,'ROCK      ',  400.0000,2,     0.000,     0.000,   1,   1,     1.000,     0.000   1
   145,'MIWW      ',  400.0000,1,     0.000,     0.000,   1,   1,     1.000,     0.000   1
   146,'BOTW      ',  400.0000,1,     0.000,     0.000,   1,   1,     1.000,     0.000   1
   147,'WYMO      ',  400.0000,1,     0.000,   485.000,   1,   1,     1.000,     0.000   1
   148,'WWEY      ',  400.0000,1,     0.000,     0.000,   1,   1,     1.000,     0.000   1
   149,'GRIW      ',  400.0000,1,     0.000,     0.000,   1,   1,     1.000,     0.000   1
   150,'BEAU      ',  400.0000,1,     0.000,     0.000,   1,   1,     1.000,     0.000   1
   151,'SMEA      ',  400.0000,1,     0.000,     0.000,   1,   1,     1.000,     0.000   1
   152,'KEAR      ',  400.0000,1,     0.000,     0.000,   1,   1,     1.000,     0.000   1
   153,'MACC      ',  400.0000,1,     0.000,     0.000,   1,   1,     1.000,     0.000   1
   154,'BRIN      ',  400.0000,1,     0.000,     0.000,   1,   1,     1.000,     0.000   1
   155,'FLEE      ',  400.0000,1,     0.000,   225.000,   1,   1,     1.000,     0.000   1
   156,'SUND      ',  400.0000,1,     0.000,   570.000,   1,   1,     1.000,     0.000   1
   157,'SELL      ',  400.0000,1,     0.000,  1140.000,   1,   1,     1.000,     0.000   1
   158,'INDQ      ',  400.0000,2,     0.000,    25.000,   1,   1,     1.000,     0.000   1
   159,'CILF      ',  400.0000,1,     0.000,  -200.000,   1,   1,     1.000,     0.000   1
   160,'WEST      ',  400.0000,1,     0.000,     0.000,   1,   1,     1.000,     0.000   1
   161,'CITR      ',  400.0000,1,     0.000,  -200.000,   1,   1,     1.000,     0.000   1
   162,'FROD      ',  400.0000,1,     0.000,     0.000,   1,   1,     1.000,     0.000   1
   163,'THOR      ',  400.0000,1,     0.000,     0.000,   1,   1,     1.000,     0.000   1
   164,'PEMB      ',  400.0000,1,     0.000,     0.000,   1,   1,     1.000,     0.000   1
   165,'LITT      ',  400.0000,2,     0.000,     0.000,   1,   1,     1.000,     0.000   1
   166,'RYEH      ',  400.0000,2,     0.000,     0.000,   1,   1,     1.000,     0.000   1
   167,'WIYH      ',  400.0000,1,     0.000,     0.000,   1,   1,     1.000,     0.000   1
   168,'RAYL      ',  400.0000,1,     0.000,     0.000,   1,   1,     1.000,     0.000   1
   169,'EKIL      ',  275.0000,1,     0.000,     0.000,   1,   1,     1.000,     0.000   1
   170,'COWB      ',  275.0000,1,     0.000,     0.000,   1,   1,     1.000,     0.000   1
   171,'KILS      ',  275.0000,1,     0.000,     0.000,   1,   1,     1.000,     0.000   1
   172,'KILT      ',  275.0000,1,     0.000,     0.000,   1,   1,     1.000,     0.000   1
   173,'SKLG      ',  275.0000,1,     0.000,    50.000,   1,   1,     1.000,     0.000   1
   174,'POPP      ',  275.0000,1,     0.000,     0.000,   1,   1,     1.000,     0.000   1
   175,'KITW      ',  275.0000,1,     0.000,     0.000,   1,   1,     1.000,     0.000   1
   176,'EKIS      ',  275.0000,1,     0.000,     0.000,   1,   1,     1.000,     0.000   1
   177,'HARK      ',  275.0000,1,     0.000,   450.000,   1,   1,     1.000,     0.000   1
   178,'BARK      ',  275.0000,1,     0.000,     0.000,   1,   1,     1.000,     0.000   1
   179,'BESW      ',  275.0000,1,     0.000,   150.000,   1,   1,     1.000,     0.000   1
   180,'DOUN      ',  275.0000,1,     0.000,     0.000,   1,   1,     1.000,     0.000   1
   181,'WMEL      ',  275.0000,1,     0.000,     0.000,   1,   1,     1.000,     0.000   1
   182,'MONF      ',  275.0000,1,     0.000,   150.000,   1,   1,     1.000,     0.000   1
   183,'HINP      ',  275.0000,1,     0.000,     0.000,   1,   1,     1.000,     0.000   1
   184,'USKM      ',  275.0000,2,     0.000,    37.200,   1,   1,     1.000,     0.000   1
   185,'DAAS      ',  275.0000,1,     0.000,     0.000,   1,   1,     1.000,     0.000   1
   186,'TINP      ',  275.0000,1,     0.000,     0.000,   1,   1,     1.000,     0.000   1
   187,'ALDW      ',  275.0000,1,     0.000,     0.000,   1,   1,     1.000,     0.000   1
   188,'WIEN      ',  275.0000,1,     0.000,     0.000,   1,   1,     1.000,     0.000   1
   189,'PITS      ',  275.0000,1,     0.000,     0.000,   1,   1,     1.000,     0.000   1
   190,'BIRK      ',  275.0000,1,     0.000,     0.000,   1,   1,     1.000,     0.000   1
   191,'BUST      ',  275.0000,1,     0.000,     0.000,   1,   1,     1.000,     0.000   1
   192,'SSHI      ',  275.0000,1,     0.000,     0.000,   1,   1,     1.000,     0.000   1
   193,'PERS      ',  275.0000,1,     0.000,     0.000,   1,   1,     1.000,     0.000   1
   194,'BUSH      ',  275.0000,1,     0.000,   150.000,   1,   1,     1.000,     0.000   1
   195,'BUSB      ',  275.0000,1,     0.000,     0.000,   1,   1,     1.000,     0.000   1
   196,'IROA      ',  275.0000,1,     0.000,     0.000,   1,   1,     1.000,     0.000   1
   197,'WATS      ',  275.0000,1,     0.000,     0.000,   1,   1,     1.000,     0.000   1
   198,'WIBA      ',  275.0000,1,     0.000,     0.000,   1,   1,     1.000,     0.000   1
   199,'WIMB      ',  275.0000,1,     0.000,  -200.000,   1,   1,     1.000,     0.000   1
...
 0 / END OF BUS DATA, BEGIN LOAD DATA
     1,'1 ', 1, 1, 1,   720.192,   210.056,     0.000,     0.000,     0.000,     0.000,   1
     4,'1 ', 1, 1, 1,   193.068,    76.305,     0.000,     0.000,     0.000,     0.000,   1
     9,'1 ', 1, 1, 1,   423.456,   123.508,     0.000,     0.000,     0.000,     0.000,   1
    12,'1 ', 1, 1, 1,   416.034,   142.029,     0.000,     0.000,     0.000,     0.000,   1
    14,'1 ', 1, 1, 1,    90.000,     0.000,     0.000,     0.000,     0.000,     0.000,   1
    20,'1 ', 1, 1, 1,    69.504,    20.272,     0.000,     0.000,     0.000,     0.000,   1
    23,'1 ', 1, 1, 1,   771.531,   293.824,     0.000,     0.000,     0.000,     0.000,   1
    24,'1 ', 1, 1, 1,   713.244,   144.830,     0.000,     0.000,     0.000,     0.000,   1
    29,'1 ', 1, 1, 1,     0.285,     0.094,     0.000,     0.000,     0.000,     0.000,   1
    31,'1 ', 1, 1, 1,   206.424,    74.922,     0.000,     0.000,     0.000,     0.000,   1
    32,'1 ', 1, 1, 1,   920.064,   268.352,     0.000,     0.000,     0.000,     0.000,   1
    33,'1 ', 1, 1, 1,   308.000,     0.000,     0.000,     0.000,     0.000,     0.000,   1
    35,'1 ', 1, 1, 1,   505.115,   166.023,     0.000,     0.000,     0.000,     0.000,   1
    37,'1 ', 1, 1, 1,   653.952,   190.736,     0.000,     0.000,     0.000,     0.000,   1
    39,'1 ', 1, 1, 1,   245.900,     0.000,     0.000,     0.000,     0.000,     0.000,   1
    41,'1 ', 1, 1, 1,   267.540,    54.326,     0.000,     0.000,     0.000,     0.000,   1
    44,'1 ', 1, 1, 1,   218.832,    54.844,     0.000,     0.000,     0.000,     0.000,   1
    49,'1 ', 1, 1, 1,   633.936,   230.088,     0.000,     0.000,     0.000,     0.000,   1
    52,'1 ', 1, 1, 1,   226.464,    66.052,     0.000,     0.000,     0.000,     0.000,   1
    54,'1 ', 1, 1, 1,   171.771,    67.888,     0.000,     0.000,     0.000,     0.000,   1
    55,'1 ', 1, 1, 1,   276.192,    80.556,     0.000,     0.000,     0.000,     0.000,   1
    57,'1 ', 1, 1, 1,    99.180,    32.599,     0.000,     0.000,     0.000,     0.000,   1
    58,'1 ', 1, 1, 1,   271.680,    79.240,     0.000,     0.000,     0.000,     0.000,   1
    60,'1 ', 1, 1, 1,   319.920,   126.440,     0.000,     0.000,     0.000,     0.000,   1
    62,'1 ', 1, 1, 1,   751.488,   219.184,     0.000,     0.000,     0.000,     0.000,   1
    64,'1 ', 1, 1, 1,   218.880,    63.840,     0.000,     0.000,     0.000,     0.000,   1
    65,'1 ', 1, 1, 1,   296.070,   293.652,     0.000,     0.000,     0.000,     0.000,   1
    66,'1 ', 1, 1, 1,   125.730,    17.916,     0.000,     0.000,     0.000,     0.000,   1
    69,'1 ', 1, 1, 1,   447.264,   130.452,     0.000,     0.000,     0.000,     0.000,   1
    70,'1 ', 1, 1, 1,   588.192,   171.556,     0.000,     0.000,     0.000,     0.000,   1
    74,'1 ', 1, 1, 1,   308.124,   166.395,     0.000,     0.000,     0.000,     0.000,   1
    75,'1 ', 1, 1, 1,   643.296,   187.628,     0.000,     0.000,     0.000,     0.000,   1
    76,'1 ', 1, 1, 1,   180.576,    52.668,     0.000,     0.000,     0.000,     0.000,   1
    77,'1 ', 1, 1, 1,   166.320,    23.699,     0.000,     0.000,     0.000,     0.000,   1
    79,'1 ', 1, 1, 1,   237.310,    78.000,     0.000,     0.000,     0.000,     0.000,   1
    83,'1 ', 1, 1, 1,     3.560,     1.824,     0.000,     0.000,     0.000,     0.000,   1
    84,'1 ', 1, 1, 1,   741.984,   216.412,     0.000,     0.000,     0.000,     0.000,   1
    85,'1 ', 1, 1, 1,   467.815,   142.314,     0.000,     0.000,     0.000,     0.000,   1
    88,'1 ', 1, 1, 1,     7.000,     0.000,     0.000,     0.000,     0.000,     0.000,   1
    89,'1 ', 1, 1, 1,   461.120,   138.163,     0.000,     0.000,     0.000,     0.000,   1
    93,'1 ', 1, 1, 1,    56.840,    11.542,     0.000,     0.000,     0.000,     0.000,   1
    94,'1 ', 1, 1, 1,   324.840,   107.868,     0.000,     0.000,     0.000,     0.000,   1
    96,'1 ', 1, 1, 1,   220.825,    60.104,     0.000,     0.000,     0.000,     0.000,   1
    97,'1 ', 1, 1, 1,   419.234,   105.070,     0.000,     0.000,     0.000,     0.000,   1
    99,'1 ', 1, 1, 1,   198.720,    57.960,     0.000,     0.000,     0.000,     0.000,   1
   100,'1 ', 1, 1, 1,   259.000,     0.000,     0.000,     0.000,     0.000,     0.000,   1
   103,'1 ', 1, 1, 1,    54.296,    29.306,     0.000,     0.000,     0.000,     0.000,   1
   107,'1 ', 1, 1, 1,   404.106,   175.541,     0.000,     0.000,     0.000,     0.000,   1
   108,'1 ', 1, 1, 1,   274.672,    88.196,     0.000,     0.000,     0.000,     0.000,   1
   111,'1 ', 1, 1, 1,    68.990,    34.567,     0.000,     0.000,     0.000,     0.000,   1
   112,'1 ', 1, 1, 1,   254.400,    74.200,     0.000,     0.000,     0.000,     0.000,   1
   115,'1 ', 1, 1, 1,    64.400,    27.434,     0.000,     0.000,     0.000,     0.000,   1
   118,'1 ', 1, 1, 1,   303.180,   119.824,     0.000,     0.000,     0.000,     0.000,   1
   119,'1 ', 1, 1, 1,  -140.472,   135.394,     0.000,     0.000,     0.000,     0.000,   1
   126,'1 ', 1, 1, 1,   341.343,    85.549,     0.000,     0.000,     0.000,     0.000,   1
   128,'1 ', 1, 1, 1,   612.465,   201.308,     0.000,     0.000,     0.000,     0.000,   1
   129,'1 ', 1, 1, 1,    15.000,     0.000,     0.000,     0.000,     0.000,     0.000,   1
   132,'1 ', 1, 1, 1,   831.747,   295.909,     0.000,     0.000,     0.000,     0.000,   1
   135,'1 ', 1, 1, 1,    21.780,     3.103,     0.000,     0.000,     0.000,     0.000,   1
   140,'1 ', 1, 1, 1,   583.862,   279.646,     0.000,     0.000,     0.000,     0.000,   1
   146,'1 ', 1, 1, 1,   173.242,    43.419,     0.000,     0.000,     0.000,     0.000,   1
   147,'1 ', 1, 1, 1,   515.696,   146.328,     0.000,     0.000,     0.000,     0.000,   1
   149,'1 ', 1, 1, 1,   155.800,    51.209,     0.000,     0.000,     0.000,     0.000,   1
   156,'1 ', 1, 1, 1,   567.168,   165.424,     0.000,     0.000,     0.000,     0.000,   1
   157,'1 ', 1, 1, 1,    11.880,     1.693,     0.000,     0.000,     0.000,     0.000,   1
   158,'1 ', 1, 1, 1,   431.000,     0.000,     0.000,     0.000,     0.000,     0.000,   1
   161,'1 ', 1, 1, 1,   834.336,   243.348,     0.000,     0.000,     0.000,     0.000,   1
   162,'1 ', 1, 1, 1,   386.400,   164.606,     0.000,     0.000,     0.000,     0.000,   1
   164,'1 ', 1, 1, 1,   187.055,    61.482,     0.000,     0.000,     0.000,     0.000,   1
   165,'1 ', 1, 1, 1,   207.152,    65.440,     0.000,     0.000,     0.000,     0.000,   1
   168,'1 ', 1, 1, 1,   755.630,   248.364,     0.000,     0.000,     0.000,     0.000,   1
   169,'1 ', 1, 1, 1,    74.011,    18.549,     0.000,     0.000,     0.000,     0.000,   1
   171,'1 ', 1, 1, 1,    37.338,     7.582,     0.000,     0.000,     0.000,     0.000,   1
   172,'1 ', 1, 1, 1,    87.936,    25.648,     0.000,     0.000,     0.000,     0.000,   1
   173,'1 ', 1, 1, 1,   614.400,   179.200,     0.000,     0.000,     0.000,     0.000,   1
   174,'1 ', 1, 1, 1,    53.980,    10.149,     0.000,     0.000,     0.000,     0.000,   1
   175,'1 ', 1, 1, 1,   412.704,   120.372,     0.000,     0.000,     0.000,     0.000,   1
   176,'1 ', 1, 1, 1,    36.864,    10.752,     0.000,     0.000,     0.000,     0.000,   1
   177,'1 ', 1, 1, 1,   136.764,    54.165,     0.000,     0.000,     0.000,     0.000,   1
   178,'1 ', 1, 1, 1,   460.681,   141.306,     0.000,     0.000,     0.000,     0.000,   1
   179,'1 ', 1, 1, 1,   383.344,    96.075,     0.000,     0.000,     0.000,     0.000,   1
   181,'1 ', 1, 1, 1,   633.560,    88.929,     0.000,     0.000,     0.000,     0.000,   1
   184,'1 ', 1, 1, 1,   243.800,   103.858,     0.000,     0.000,     0.000,     0.000,   1
   186,'1 ', 1, 1, 1,    41.300,    42.134,     0.000,     0.000,     0.000,     0.000,   1
   187,'1 ', 1, 1, 1,   158.200,   115.390,     0.000,     0.000,     0.000,     0.000,   1
   188,'1 ', 1, 1, 1,   197.682,    71.749,     0.000,     0.000,     0.000,     0.000,   1
   189,'1 ', 1, 1, 1,    93.180,    48.810,     0.000,     0.000,     0.000,     0.000,   1
   190,'1 ', 1, 1, 1,   280.170,    39.922,     0.000,     0.000,     0.000,     0.000,   1
   191,'1 ', 1, 1, 1,   362.880,   105.840,     0.000,     0.000,     0.000,     0.000,   1
   192,'1 ', 1, 1, 1,    49.470,    12.398,     0.000,     0.000,     0.000,     0.000,   1
   194,'1 ', 1, 1, 1,   159.840,    46.620,     0.000,     0.000,     0.000,     0.000,   1
   196,'1 ', 1, 1, 1,   507.600,   111.579,     0.000,     0.000,     0.000,     0.000,   1
   197,'1 ', 1, 1, 1,   195.744,    57.092,     0.000,     0.000,     0.000,     0.000,   1
   198,'1 ', 1, 1, 1,    31.680,    17.099,     0.000,     0.000,     0.000,     0.000,   1
   199,'1 ', 1, 1, 1,   734.496,   214.228,     0.000,     0.000,     0.000,     0.000,   1
   200,'1 ', 1, 1, 1,   221.720,    94.452,     0.000,     0.000,     0.000,     0.000,   1
   201,'1 ', 1, 1, 1,   115.640,    23.482,     0.000,     0.000,     0.000,     0.000,   1
   202,'1 ', 1, 1, 1,    63.826,    15.996,     0.000,     0.000,     0.000,     0.000,   1
   203,'1 ', 1, 1, 1,   242.550,    34.562,     0.000,     0.000,     0.000,     0.000,   1
   205,'1 ', 1, 1, 1,   725.770,   130.142,     0.000,     0.000,     0.000,     0.000,   1
   207,'1 ', 1, 1, 1,   105.732,    15.066,     0.000,     0.000,     0.000,     0.000,   1
   208,'1 ', 1, 1, 1,   505.548,   199.805,     0.000,     0.000,     0.000,     0.000,   1
   213,'1 ', 1, 1, 1,   281.000,     0.000,     0.000,     0.000,     0.000,     0.000,   1
   214,'1 ', 1, 1, 1,    80.750,    50.044,     0.000,     0.000,     0.000,     0.000,   1
   215,'1 ', 1, 1, 1,   508.402,   157.015,     0.000,     0.000,     0.000,     0.000,   1
   216,'1 ', 1, 1, 1,   499.584,   145.712,     0.000,     0.000,     0.000,     0.000,   1
   217,'1 ', 1, 1, 1,   101.256,    19.343,     0.000,     0.000,     0.000,     0.000,   1
   219,'1 ', 1, 1, 1,   191.045,    62.793,     0.000,     0.000,     0.000,     0.000,   1
   221,'1 ', 1, 1, 1,    83.986,    17.054,     0.000,     0.000,     0.000,     0.000,   1
   222,'1 ', 1, 1, 1,   258.500,    93.823,     0.000,     0.000,     0.000,     0.000,   1
   223,'1 ', 1, 1, 1,    71.280,    10.157,     0.000,     0.000,     0.000,     0.000,   1
   224,'1 ', 1, 1, 1,   530.765,   174.454,     0.000,     0.000,     0.000,     0.000,   1
   225,'1 ', 1, 1, 1,    84.084,    17.074,     0.000,     0.000,     0.000,     0.000,   1
   226,'1 ', 1, 1, 1,    82.650,    27.166,     0.000,     0.000,     0.000,     0.000,   1
   229,'1 ', 1, 1, 1,   164.997,    41.352,     0.000,     0.000,     0.000,     0.000,   1
   230,'1 ', 1, 1, 1,   398.090,   144.487,     0.000,     0.000,     0.000,     0.000,   1
   231,'1 ', 1, 1, 1,   546.297,   176.442,     0.000,     0.000,     0.000,     0.000,   1
   234,'1 ', 1, 1, 1,    18.800,     9.927,     0.000,     0.000,     0.000,     0.000,   1
   235,'1 ', 1, 1, 1,   147.648,    43.064,     0.000,     0.000,     0.000,     0.000,   1
   240,'1 ', 1, 1, 1,   522.732,    87.188,     0.000,     0.000,     0.000,     0.000,   1
   241,'1 ', 1, 1, 1,   361.056,   105.308,     0.000,     0.000,     0.000,     0.000,   1
   242,'1 ', 1, 1, 1,   239.692,    76.045,     0.000,     0.000,     0.000,     0.000,   1
   244,'1 ', 1, 1, 1,   150.920,    30.646,     0.000,     0.000,     0.000,     0.000,   1
   246,'1 ', 1, 1, 1,     6.400,     4.800,     0.000,     0.000,     0.000,     0.000,   1
   249,'1 ', 1, 1, 1,    72.324,    14.686,     0.000,     0.000,     0.000,     0.000,   1
   250,'1 ', 1, 1, 1,    67.200,    19.600,     0.000,     0.000,     0.000,     0.000,   1
   252,'1 ', 1, 1, 1,    87.724,    39.968,     0.000,     0.000,     0.000,     0.000,   1
   253,'1 ', 1, 1, 1,   240.960,    70.280,     0.000,     0.000,     0.000,     0.000,   1
   254,'1 ', 1, 1, 1,    75.844,    84.035,     0.000,     0.000,     0.000,     0.000,   1
   255,'1 ', 1, 1, 1,   321.120,    93.660,     0.000,     0.000,     0.000,     0.000,   1
   256,'1 ', 1, 1, 1,   948.848,   269.164,     0.000,     0.000,     0.000,     0.000,   1
   257,'1 ', 1, 1, 1,    71.540,    14.527,     0.000,     0.000,     0.000,     0.000,   1
   258,'1 ', 1, 1, 1,   345.676,   177.095,     0.000,     0.000,     0.000,     0.000,   1
   259,'1 ', 1, 1, 1,   413.184,   120.512,     0.000,     0.000,     0.000,     0.000,   1
   260,'1 ', 1, 1, 1,   102.044,    25.575,     0.000,     0.000,     0.000,     0.000,   1
   261,'1 ', 1, 1, 1,   465.697,   116.715,     0.000,     0.000,     0.000,     0.000,   1
   262,'1 ', 1, 1, 1,   328.320,   107.914,     0.000,     0.000,     0.000,     0.000,   1
   264,'1 ', 1, 1, 1,   100.298,    25.137,     0.000,     0.000,     0.000,     0.000,   1
   269,'1 ', 1, 1, 1,    99.960,    20.298,     0.000,     0.000,     0.000,     0.000,   1
   271,'1 ', 1, 1, 1,    67.032,    13.611,     0.000,     0.000,     0.000,     0.000,   1
   272,'1 ', 1, 1, 1,   301.344,    87.892,     0.000,     0.000,     0.000,     0.000,   1
   273,'1 ', 1, 1, 1,   272.080,    90.963,     0.000,     0.000,     0.000,     0.000,   1
   275,'1 ', 1, 1, 1,    86.496,    25.228,     0.000,     0.000,     0.000,     0.000,   1
   276,'1 ', 1, 1, 1,    27.500,     3.000,     0.000,     0.000,     0.000,     0.000,   1
   278,'1 ', 1, 1, 1,   298.584,   169.215,     0.000,     0.000,     0.000,     0.000,   1
   279,'1 ', 1, 1, 1,   120.600,    58.409,     0.000,     0.000,     0.000,     0.000,   1
   280,'1 ', 1, 1, 1,   228.260,    33.551,     0.000,     0.000,     0.000,     0.000,   1
   281,'1 ', 1, 1, 1,   302.640,    75.849,     0.000,     0.000,     0.000,     0.000,   1
   283,'1 ', 1, 1, 1,   553.766,    93.154,     0.000,     0.000,     0.000,     0.000,   1
   284,'1 ', 1, 1, 1,    94.962,    19.283,     0.000,     0.000,     0.000,     0.000,   1
   286,'1 ', 1, 1, 1,    65.894,    23.916,     0.000,     0.000,     0.000,     0.000,   1
   287,'1 ', 1, 1, 1,   107.996,    21.930,     0.000,     0.000,     0.000,     0.000,   1
   288,'1 ', 1, 1, 1,    79.968,    16.238,     0.000,     0.000,     0.000,     0.000,   1
   289,'1 ', 1, 1, 1,    58.024,    16.146,     0.000,     0.000,     0.000,     0.000,   1
   292,'1 ', 1, 1, 1,    94.560,    27.580,     0.000,     0.000,     0.000,     0.000,   1
   294,'1 ', 1, 1, 1,   253.460,    83.308,     0.000,     0.000,     0.000,     0.000,   1
   295,'1 ', 1, 1, 1,   358.140,   129.987,     0.000,     0.000,     0.000,     0.000,   1
   297,'1 ', 1, 1, 1,   175.680,    51.240,     0.000,     0.000,     0.000,     0.000,   1
   298,'1 ', 1, 1, 1,   181.082,    49.272,     0.000,     0.000,     0.000,     0.000,   1
   300,'1 ', 1, 1, 1,   184.015,    60.483,     0.000,     0.000,     0.000,     0.000,   1
   301,'1 ', 1, 1, 1,   180.810,    36.715,     0.000,     0.000,     0.000,     0.000,   1
   302,'1 ', 1, 1, 1,    17.000,     0.000,     0.000,     0.000,     0.000,     0.000,   1
   303,'1 ', 1, 1, 1,   147.744,    43.092,     0.000,     0.000,     0.000,     0.000,   1
   304,'1 ', 1, 1, 1,    56.840,    11.542,     0.000,     0.000,     0.000,     0.000,   1
   307,'1 ', 1, 1, 1,    82.890,     0.456,     0.000,     0.000,     0.000,     0.000,   1
   308,'1 ', 1, 1, 1,    96.806,    24.262,     0.000,     0.000,     0.000,     0.000,   1
   309,'1 ', 1, 1, 1,   331.000,     0.000,     0.000,     0.000,     0.000,     0.000,   1
   310,'1 ', 1, 1, 1,   297.886,   108.118,     0.000,     0.000,     0.000,     0.000,   1
   315,'1 ', 1, 1, 1,   109.890,    15.658,     0.000,     0.000,     0.000,     0.000,   1
   316,'1 ', 1, 1, 1,   120.576,    35.168,     0.000,     0.000,     0.000,     0.000,   1
   317,'1 ', 1, 1, 1,    96.000,    28.000,     0.000,     0.000,     0.000,     0.000,   1
   318,'1 ', 1, 1, 1,   261.512,    65.541,     0.000,     0.000,     0.000,     0.000,   1
   319,'1 ', 1, 1, 1,   538.368,   157.024,     0.000,     0.000,     0.000,     0.000,   1
   320,'1 ', 1, 1, 1,   736.930,   236.853,     0.000,     0.000,     0.000,     0.000,   1
   321,'1 ', 1, 1, 1,   477.822,   119.753,     0.000,     0.000,     0.000,     0.000,   1
   323,'1 ', 1, 1, 1,   225.600,    65.800,     0.000,     0.000,     0.000,     0.000,   1
   327,'1 ', 1, 1, 1,    86.400,    25.200,     0.000,     0.000,     0.000,     0.000,   1
   328,'1 ', 1, 1, 1,   135.280,    44.464,     0.000,     0.000,     0.000,     0.000,   1
   330,'1 ', 1, 1, 1,    79.101,    11.271,     0.000,     0.000,     0.000,     0.000,   1
   331,'1 ', 1, 1, 1,   309.312,    90.216,     0.000,     0.000,     0.000,     0.000,   1
   332,'1 ', 1, 1, 1,   285.000,    93.675,     0.000,     0.000,     0.000,     0.000,   1
   333,'1 ', 1, 1, 1,   269.688,   116.042,     0.000,     0.000,     0.000,     0.000,   1
   334,'1 ', 1, 1, 1,    72.128,    14.646,     0.000,     0.000,     0.000,     0.000,   1
   337,'1 ', 1, 1, 1,   375.340,    76.216,     0.000,     0.000,     0.000,     0.000,   1
   338,'1 ', 1, 1, 1,   211.536,    92.614,     0.000,     0.000,     0.000,     0.000,   1
   340,'1 ', 1, 1, 1,   261.381,    91.610,     0.000,     0.000,     0.000,     0.000,   1
   341,'1 ', 1, 1, 1,    43.392,    12.656,     0.000,     0.000,     0.000,     0.000,   1
   344,'1 ', 1, 1, 1,   384.288,   112.084,     0.000,     0.000,     0.000,     0.000,   1
   348,'1 ', 1, 1, 1,    86.338,    17.532,     0.000,     0.000,     0.000,     0.000,   1
   351,'1 ', 1, 1, 1,    91.136,    21.588,     0.000,     0.000,     0.000,     0.000,   1
   352,'1 ', 1, 1, 1,   679.973,   202.115,     0.000,     0.000,     0.000,     0.000,   1
   353,'1 ', 1, 1, 1,   252.864,    73.752,     0.000,     0.000,     0.000,     0.000,   1
   354,'1 ', 1, 1, 1,    79.230,    26.042,     0.000,     0.000,     0.000,     0.000,   1
   356,'1 ', 1, 1, 1,   274.075,    90.084,     0.000,     0.000,     0.000,     0.000,   1
   358,'1 ', 1, 1, 1,   250.648,    76.096,     0.000,     0.000,     0.000,     0.000,   1
   360,'1 ', 1, 1, 1,   493.000,     0.000,     0.000,     0.000,     0.000,     0.000,   1
   362,'1 ', 1, 1, 1,   181.550,    48.692,     0.000,     0.000,     0.000,     0.000,   1
   370,'1 ', 1, 1, 1,    25.872,     5.254,     0.000,     0.000,     0.000,     0.000,   1
   372,'1 ', 1, 1, 1,     3.404,     1.450,     0.000,     0.000,     0.000,     0.000,   1
   376,'1 ', 1, 1, 1,    52.920,    10.746,     0.000,     0.000,     0.000,     0.000,   1
...
 0 / END OF LOAD DATA, BEGIN GENERATOR DATA
    19,'1 ',   100.000,     0.000,   273.800,  -145.900,   1.00000,     0,   100.000,   0.00000,   0.00000,   0.00000,   0.00000,0.00000,1,  100.0,   545.000,   136.250,   1,1.0000
    19,'1 ',   100.000,     0.000,   104.200,  -145.400,   1.00000,     0,   100.000,   0.00000,   0.00000,   0.00000,   0.00000,0.00000,1,  100.0,   545.000,   136.250,   1,1.0000
   102,'1 ',   100.000,     0.000,   296.900,  -272.500,   1.00000,     0,   100.000,   0.00000,   0.00000,   0.00000,   0.00000,0.00000,1,  100.0,   600.000,   150.000,   1,1.0000
   102,'1 ',   100.000,     0.000,   296.900,  -272.500,   1.00000,     0,   100.000,   0.00000,   0.00000,   0.00000,   0.00000,0.00000,1,  100.0,   600.000,   150.000,   1,1.0000
    94,'1 ',   100.000,     0.000,   157.200,  -174.400,   1.00000,     0,   100.000,   0.00000,   0.00000,   0.00000,   0.00000,0.00000,1,  100.0,   345.000,    86.250,   1,1.0000
    94,'1 ',   100.000,     0.000,   157.100,  -174.500,   1.00000,     0,   100.000,   0.00000,   0.00000,   0.00000,   0.00000,0.00000,1,  100.0,   345.000,    86.250,   1,1.0000
    94,'1 ',   100.000,     0.000,   156.800,  -174.700,   1.00000,     0,   100.000,   0.00000,   0.00000,   0.00000,   0.00000,0.00000,1,  100.0,   345.000,    86.250,   1,1.0000
    94,'1 ',   100.000,     0.000,   157.800,  -174.600,   1.00000,     0,   100.000,   0.00000,   0.00000,   0.00000,   0.00000,0.00000,1,  100.0,   345.000,    86.250,   1,1.0000
    92,'1 ',   100.000,     0.000,   130.900,  -135.400,   1.00000,     0,   100.000,   0.00000,   0.00000,   0.00000,   0.00000,0.00000,1,  100.0,   266.700,    66.675,   1,1.0000
    92,'1 ',   100.000,     0.000,   130.900,  -135.400,   1.00000,     0,   100.000,   0.00000,   0.00000,   0.00000,   0.00000,0.00000,1,  100.0,   266.700,    66.675,   1,1.0000
    92,'1 ',   100.000,     0.000,   155.600,  -122.400,   1.00000,     0,   100.000,   0.00000,   0.00000,   0.00000,   0.00000,0.00000,1,  100.0,   266.700,    66.675,   1,1.0000
    53,'1 ',   100.000,     0.000,   174.100,  -193.400,   1.00000,     0,   100.000,   0.00000,   0.00000,   0.00000,   0.00000,0.00000,1,  100.0,   495.000,   123.750,   1,1.0000
    53,'1 ',   100.000,     0.000,   154.900,  -190.200,   1.00000,     0,   100.000,   0.00000,   0.00000,   0.00000,   0.00000,0.00000,1,  100.0,   505.000,   126.250,   1,1.0000
    53,'1 ',   100.000,     0.000,   155.400,  -195.100,   1.00000,     0,   100.000,   0.00000,   0.00000,   0.00000,   0.00000,0.00000,1,  100.0,   505.000,   126.250,   1,1.0000
    53,'1 ',   100.000,     0.000,   175.700,  -192.100,   1.00000,     0,   100.000,   0.00000,   0.00000,   0.00000,   0.00000,0.00000,1,  100.0,   495.000,   123.750,   1,1.0000
    53,'1 ',   100.000,     0.000,   164.800,  -183.900,   1.00000,     0,   100.000,   0.00000,   0.00000,   0.00000,   0.00000,0.00000,1,  100.0,   395.000,    98.750,   1,1.0000
   113,'1 ',   100.000,     0.000,   121.500,  -129.300,   1.00000,     0,   100.000,   0.00000,   0.00000,   0.00000,   0.00000,0.00000,1,  100.0,   273.000,    68.250,   1,1.0000
   113,'1 ',   100.000,     0.000,   112.000,  -130.400,   1.00000,     0,   100.000,   0.00000,   0.00000,   0.00000,   0.00000,0.00000,1,  100.0,   273.000,    68.250,   1,1.0000
   113,'1 ',   100.000,     0.000,   118.700,  -121.700,   1.00000,     0,   100.000,   0.00000,   0.00000,   0.00000,   0.00000,0.00000,1,  100.0,   259.000,    64.750,   1,1.0000
    94,'1 ',   100.000,     0.000,    73.300,   -85.400,   1.00000,     0,   100.000,   0.00000,   0.00000,   0.00000,   0.00000,0.00000,1,  100.0,    89.500,    22.375,   1,1.0000
    94,'1 ',   100.000,     0.000,    73.300,   -85.400,   1.00000,     0,   100.000,   0.00000,   0.00000,   0.00000,   0.00000,0.00000,1,  100.0,   163.000,    40.750,   1,1.0000
    94,'1 ',   100.000,     0.000,   101.200,   -67.400,   1.00000,     0,   100.000,   0.00000,   0.00000,   0.00000,   0.00000,0.00000,1,  100.0,   148.000,    37.000,   1,1.0000
   101,'1 ',   100.000,     0.000,   183.600,  -267.000,   1.00000,     0,   100.000,   0.00000,   0.00000,   0.00000,   0.00000,0.00000,1,  100.0,   527.000,   131.750,   1,1.0000
   101,'1 ',   100.000,     0.000,   202.400,  -258.100,   1.00000,     0,   100.000,   0.00000,   0.00000,   0.00000,   0.00000,0.00000,1,  100.0,   527.000,   131.750,   1,1.0000
   101,'1 ',   100.000,     0.000,   187.100,  -264.000,   1.00000,     0,   100.000,   0.00000,   0.00000,   0.00000,   0.00000,0.00000,1,  100.0,   527.000,   131.750,   1,1.0000
   101,'1 ',   100.000,     0.000,   183.800,  -266.900,   1.00000,     0,   100.000,   0.00000,   0.00000,   0.00000,   0.00000,0.00000,1,  100.0,   527.000,   131.750,   1,1.0000
   101,'1 ',   100.000,     0.000,    10.000,   -10.000,   1.00000,     0,   100.000,   0.00000,   0.00000,   0.00000,   0.00000,0.00000,1,  100.0,    25.000,     6.250,   1,1.0000
   101,'1 ',   100.000,     0.000,    10.000,   -10.000,   1.00000,     0,   100.000,   0.00000,   0.00000,   0.00000,   0.00000,0.00000,1,  100.0,    25.000,     6.250,   1,1.0000
   101,'1 ',   100.000,     0.000,    10.000,   -10.000,   1.00000,     0,   100.000,   0.00000,   0.00000,   0.00000,   0.00000,0.00000,1,  100.0,    25.000,     6.250,   1,1.0000
   101,'1 ',   100.000,     0.000,    10.000,   -10.000,   1.00000,     0,   100.000,   0.00000,   0.00000,   0.00000,   0.00000,0.00000,1,  100.0,    25.000,     6.250,   1,1.0000
   101,'1 ',   100.000,     0.000,    60.900,   -89.900,   1.00000,     0,   100.000,   0.00000,   0.00000,   0.00000,   0.00000,0.00000,1,  100.0,   240.700,    60.175,   1,1.0000
   101,'1 ',   100.000,     0.000,    60.900,   -89.900,   1.00000,     0,   100.000,   0.00000,   0.00000,   0.00000,   0.00000,0.00000,1,  100.0,   240.700,    60.175,   1,1.0000
   101,'1 ',   100.000,     0.000,    76.100,  -111.900,   1.00000,     0,   100.000,   0.00000,   0.00000,   0.00000,   0.00000,0.00000,1,  100.0,   293.400,    73.350,   1,1.0000
   101,'1 ',   100.000,     0.000,    64.300,   -88.200,   1.00000,     0,   100.000,   0.00000,   0.00000,   0.00000,   0.00000,0.00000,1,  100.0,   237.700,    59.425,   1,1.0000
   101,'1 ',   100.000,     0.000,    72.500,   -84.000,   1.00000,     0,   100.000,   0.00000,   0.00000,   0.00000,   0.00000,0.00000,1,  100.0,   237.700,    59.425,   1,1.0000
   101,'1 ',   100.000,     0.000,   105.200,  -122.000,   1.00000,     0,   100.000,   0.00000,   0.00000,   0.00000,   0.00000,0.00000,1,  100.0,   299.800,    74.950,   1,1.0000
    51,'1 ',   100.000,     0.000,    90.100,  -139.900,   1.00000,     0,   100.000,   0.00000,   0.00000,   0.00000,   0.00000,0.00000,1,  100.0,   274.000,    68.500,   1,1.0000
    51,'1 ',   100.000,     0.000,    90.100,  -139.900,   1.00000,     0,   100.000,   0.00000,   0.00000,   0.00000,   0.00000,0.00000,1,  100.0,   274.000,    68.500,   1,1.0000
    51,'1 ',   100.000,     0.000,    90.100,  -139.900,   1.00000,     0,   100.000,   0.00000,   0.00000,   0.00000,   0.00000,0.00000,1,  100.0,   274.000,    68.500,   1,1.0000
    51,'1 ',   100.000,     0.000,    90.100,  -139.900,   1.00000,     0,   100.000,   0.00000,   0.00000,   0.00000,   0.00000,0.00000,1,  100.0,   274.000,    68.500,   1,1.0000
    51,'1 ',   100.000,     0.000,    90.100,  -139.900,   1.00000,     0,   100.000,   0.00000,   0.00000,   0.00000,   0.00000,0.00000,1,  100.0,   274.000,    68.500,   1,1.0000
    51,'1 ',   100.000,     0.000,    90.100,  -139.900,   1.00000,     0,   100.000,   0.00000,   0.00000,   0.00000,   0.00000,0.00000,1,  100.0,   274.000,    68.500,   1,1.0000
   111,'1 ',   100.000,     0.000,   268.200,  -289.000,   1.00000,     0,   100.000,   0.00000,   0.00000,   0.00000,   0.00000,0.00000,1,  100.0,   649.000,   162.250,   1,1.0000
   111,'1 ',   100.000,     0.000,   268.800,  -288.500,   1.00000,     0,   100.000,   0.00000,   0.00000,   0.00000,   0.00000,0.00000,1,  100.0,   649.000,   162.250,   1,1.0000
   111,'1 ',   100.000,     0.000,   266.400,  -290.500,   1.00000,     0,   100.000,   0.00000,   0.00000,   0.00000,   0.00000,0.00000,1,  100.0,   649.000,   162.250,   1,1.0000
   111,'1 ',   100.000,     0.000,   271.700,  -271.100,   1.00000,     0,   100.000,   0.00000,   0.00000,   0.00000,   0.00000,0.00000,1,  100.0,   649.000,   162.250,   1,1.0000
   111,'1 ',   100.000,     0.000,   270.800,  -271.900,   1.00000,     0,   100.000,   0.00000,   0.00000,   0.00000,   0.00000,0.00000,1,  100.0,   649.000,   162.250,   1,1.0000
   111,'1 ',   100.000,     0.000,   271.900,  -271.000,   1.00000,     0,   100.000,   0.00000,   0.00000,   0.00000,   0.00000,0.00000,1,  100.0,   649.000,   162.250,   1,1.0000
   110,'1 ',   100.000,     0.000,   315.000,  -286.400,   1.00000,     0,   100.000,   0.00000,   0.00000,   0.00000,   0.00000,0.00000,1,  100.0,   541.000,   135.250,   1,1.0000
   110,'1 ',   100.000,     0.000,   308.600,  -297.800,   1.00000,     0,   100.000,   0.00000,   0.00000,   0.00000,   0.00000,0.00000,1,  100.0,   541.000,   135.250,   1,1.0000
    38,'1 ',   100.000,     0.000,   209.100,  -144.600,   1.00000,     0,   100.000,   0.00000,   0.00000,   0.00000,   0.00000,0.00000,1,  100.0,   483.000,   120.750,   1,1.0000
    38,'1 ',   100.000,     0.000,   217.100,  -150.600,   1.00000,     0,   100.000,   0.00000,   0.00000,   0.00000,   0.00000,0.00000,1,  100.0,   483.000,   120.750,   1,1.0000
    38,'1 ',   100.000,     0.000,   164.700,  -144.100,   1.00000,     0,   100.000,   0.00000,   0.00000,   0.00000,   0.00000,0.00000,1,  100.0,   483.000,   120.750,   1,1.0000
    38,'1 ',   100.000,     0.000,   184.300,  -148.200,   1.00000,     0,   100.000,   0.00000,   0.00000,   0.00000,   0.00000,0.00000,1,  100.0,   483.000,   120.750,   1,1.0000
    74,'1 ',   100.000,     0.000,   199.000,  -156.700,   1.00000,     0,   100.000,   0.00000,   0.00000,   0.00000,   0.00000,0.00000,1,  100.0,   500.000,   125.000,   1,1.0000
    74,'1 ',   100.000,     0.000,   201.300,  -154.300,   1.00000,     0,   100.000,   0.00000,   0.00000,   0.00000,   0.00000,0.00000,1,  100.0,   500.000,   125.000,   1,1.0000
    74,'1 ',   100.000,     0.000,     6.800,    -6.800,   1.00000,     0,   100.000,   0.00000,   0.00000,   0.00000,   0.00000,0.00000,1,  100.0,    17.000,     4.250,   1,1.0000
    74,'1 ',   100.000,     0.000,     9.200,    -9.200,   1.00000,     0,   100.000,   0.00000,   0.00000,   0.00000,   0.00000,0.00000,1,  100.0,    23.000,     5.750,   1,1.0000
    74,'1 ',   100.000,     0.000,     6.800,    -6.800,   1.00000,     0,   100.000,   0.00000,   0.00000,   0.00000,   0.00000,0.00000,1,  100.0,    17.000,     4.250,   1,1.0000
    74,'1 ',   100.000,     0.000,     3.200,    -3.200,   1.00000,     0,   100.000,   0.00000,   0.00000,   0.00000,   0.00000,0.00000,1,  100.0,     8.000,     2.000,   1,1.0000
   103,'1 ',   100.000,     0.000,   242.400,  -237.100,   1.00000,     0,   100.000,   0.00000,   0.00000,   0.00000,   0.00000,0.00000,1,  100.0,   650.000,   162.500,   1,1.0000
   103,'1 ',   100.000,     0.000,   242.400,  -237.100,   1.00000,     0,   100.000,   0.00000,   0.00000,   0.00000,   0.00000,0.00000,1,  100.0,     0.000,     0.000,   1,1.0000
   103,'1 ',   100.000,     0.000,     0.000,     0.000,   1.00000,     0,   100.000,   0.00000,   0.00000,   0.00000,   0.00000,0.00000,1,  100.0,     0.000,     0.000,   1,1.0000
   103,'1 ',   100.000,     0.000,     0.000,     0.000,   1.00000,     0,   100.000,   0.00000,   0.00000,   0.00000,   0.00000,0.00000,1,  100.0,   650.000,   162.500,   1,1.0000
   103,'1 ',   100.000,     0.000,    22.000,   -22.000,   1.00000,     0,   100.000,   0.00000,   0.00000,   0.00000,   0.00000,0.00000,1,  100.0,    55.000,    13.750,   1,1.0000
   103,'1 ',   100.000,     0.000,     0.000,    -0.000,   1.00000,     0,   100.000,   0.00000,   0.00000,   0.00000,   0.00000,0.00000,1,  100.0,     0.000,     0.000,   1,1.0000
   103,'1 ',   100.000,     0.000,     0.000,    -0.000,   1.00000,     0,   100.000,   0.00000,   0.00000,   0.00000,   0.00000,0.00000,1,  100.0,     0.000,     0.000,   1,1.0000
   103,'1 ',   100.000,     0.000,     0.000,    -0.000,   1.00000,     0,   100.000,   0.00000,   0.00000,   0.00000,   0.00000,0.00000,1,  100.0,     0.000,     0.000,   1,1.0000
   103,'1 ',   100.000,     0.000,     0.000,    -0.000,   1.00000,     0,   100.000,   0.00000,   0.00000,   0.00000,   0.00000,0.00000,1,  100.0,     0.000,     0.000,   1,1.0000
   119,'1 ',   100.000,     0.000,   286.300,  -289.200,   1.00000,     0,   100.000,   0.00000,   0.00000,   0.00000,   0.00000,0.00000,1,  100.0,   607.000,   151.750,   1,1.0000
   119,'1 ',   100.000,     0.000,   292.600,  -288.700,   1.00000,     0,   100.000,   0.00000,   0.00000,   0.00000,   0.00000,0.00000,1,  100.0,   596.000,   149.000,   1,1.0000
   119,'1 ',   100.000,     0.000,   269.200,  -266.200,   1.00000,     0,   100.000,   0.00000,   0.00000,   0.00000,   0.00000,0.00000,1,  100.0,   601.000,   150.250,   1,1.0000
   119,'1 ',   100.000,     0.000,   265.700,  -264.600,   1.00000,     0,   100.000,   0.00000,   0.00000,   0.00000,   0.00000,0.00000,1,  100.0,   603.000,   150.750,   1,1.0000
    15,'1 ',   100.000,     0.000,   202.800,  -248.600,   1.00000,     0,   100.000,   0.00000,   0.00000,   0.00000,   0.00000,0.00000,1,  100.0,   644.000,   161.000,   1,1.0000
    15,'1 ',   100.000,     0.000,   193.500,  -290.800,   1.00000,     0,   100.000,   0.00000,   0.00000,   0.00000,   0.00000,0.00000,1,  100.0,   617.000,   154.250,   1,1.0000
    17,'1 ',   100.000,     0.000,   118.500,  -122.400,   1.00000,     0,   100.000,   0.00000,   0.00000,   0.00000,   0.00000,0.00000,1,  100.0,   244.000,    61.000,   1,1.0000
    17,'1 ',   100.000,     0.000,   118.500,  -122.400,   1.00000,     0,   100.000,   0.00000,   0.00000,   0.00000,   0.00000,0.00000,1,  100.0,   262.000,    65.500,   1,1.0000
    17,'1 ',   100.000,     0.000,    54.600,   -53.500,   1.00000,     0,   100.000,   0.00000,   0.00000,   0.00000,   0.00000,0.00000,1,  100.0,   117.000,    29.250,   1,1.0000
    17,'1 ',   100.000,     0.000,    54.600,   -53.500,   1.00000,     0,   100.000,   0.00000,   0.00000,   0.00000,   0.00000,0.00000,1,  100.0,   117.000,    29.250,   1,1.0000
    17,'1 ',   100.000,     0.000,   148.100,  -114.000,   1.00000,     0,   100.000,   0.00000,   0.00000,   0.00000,   0.00000,0.00000,1,  100.0,   227.000,    56.750,   1,1.0000
    17,'1 ',   100.000,     0.000,   148.100,  -114.000,   1.00000,     0,   100.000,   0.00000,   0.00000,   0.00000,   0.00000,0.00000,1,  100.0,   227.000,    56.750,   1,1.0000
    17,'1 ',   100.000,     0.000,    55.600,   -52.500,   1.00000,     0,   100.000,   0.00000,   0.00000,   0.00000,   0.00000,0.00000,1,  100.0,   106.000,    26.500,   1,1.0000
   158,'1 ',   100.000,     0.000,   115.900,   -54.900,   1.00000,     0,   100.000,   0.00000,   0.00000,   0.00000,   0.00000,0.00000,1,  100.0,   140.000,    35.000,   1,1.0000
    21,'1 ',   100.000,     0.000,   208.500,  -165.200,   1.00000,     0,   100.000,   0.00000,   0.00000,   0.00000,   0.00000,0.00000,1,  100.0,   482.000,   120.500,   1,1.0000
    21,'1 ',   100.000,     0.000,   206.300,  -159.500,   1.00000,     0,   100.000,   0.00000,   0.00000,   0.00000,   0.00000,0.00000,1,  100.0,   482.000,   120.500,   1,1.0000
    65,'1 ',   100.000,     0.000,    96.500,  -109.500,   1.00000,     0,   100.000,   0.00000,   0.00000,   0.00000,   0.00000,0.00000,1,  100.0,   245.000,    61.250,   1,1.0000
    65,'1 ',   100.000,     0.000,   110.900,  -106.200,   1.00000,     0,   100.000,   0.00000,   0.00000,   0.00000,   0.00000,0.00000,1,  100.0,   245.000,    61.250,   1,1.0000
    65,'1 ',   100.000,     0.000,   103.300,  -113.700,   1.00000,     0,   100.000,   0.00000,   0.00000,   0.00000,   0.00000,0.00000,1,  100.0,   245.000,    61.250,   1,1.0000
    46,'1 ',   100.000,     0.000,    66.900,   -69.700,   1.00000,     0,   100.000,   0.00000,   0.00000,   0.00000,   0.00000,0.00000,1,  100.0,     0.000,     0.000,   1,1.0000
    46,'1 ',   100.000,     0.000,    68.700,   -68.100,   1.00000,     0,   100.000,   0.00000,   0.00000,   0.00000,   0.00000,0.00000,1,  100.0,     0.000,     0.000,   1,1.0000
    46,'1 ',   100.000,     0.000,    79.600,   -73.600,   1.00000,     0,   100.000,   0.00000,   0.00000,   0.00000,   0.00000,0.00000,1,  100.0,     0.000,     0.000,   1,1.0000
    46,'1 ',   100.000,     0.000,    67.000,   -69.500,   1.00000,     0,   100.000,   0.00000,   0.00000,   0.00000,   0.00000,0.00000,1,  100.0,     0.000,     0.000,   1,1.0000
    46,'1 ',   100.000,     0.000,    67.000,   -69.500,   1.00000,     0,   100.000,   0.00000,   0.00000,   0.00000,   0.00000,0.00000,1,  100.0,     0.000,     0.000,   1,1.0000
    46,'1 ',   100.000,     0.000,    79.600,   -73.600,   1.00000,     0,   100.000,   0.00000,   0.00000,   0.00000,   0.00000,0.00000,1,  100.0,     0.000,     0.000,   1,1.0000
    46,'1 ',   100.000,     0.000,    57.300,   -69.000,   1.00000,     0,   100.000,   0.00000,   0.00000,   0.00000,   0.00000,0.00000,1,  100.0,   144.600,    36.150,   1,1.0000
    46,'1 ',   100.000,     0.000,    57.300,   -69.000,   1.00000,     0,   100.000,   0.00000,   0.00000,   0.00000,   0.00000,0.00000,1,  100.0,   144.600,    36.150,   1,1.0000
    46,'1 ',   100.000,     0.000,    57.300,   -69.000,   1.00000,     0,   100.000,   0.00000,   0.00000,   0.00000,   0.00000,0.00000,1,  100.0,   144.600,    36.150,   1,1.0000
    46,'1 ',   100.000,     0.000,   104.700,  -106.700,   1.00000,     0,   100.000,   0.00000,   0.00000,   0.00000,   0.00000,0.00000,1,  100.0,   231.200,    57.800,   1,1.0000
    64,'1 ',   100.000,     0.000,   196.000,  -131.900,   1.00000,     0,   100.000,   0.00000,   0.00000,   0.00000,   0.00000,0.00000,1,  100.0,   485.000,   121.250,   1,1.0000
    64,'1 ',   100.000,     0.000,   196.200,  -131.800,   1.00000,     0,   100.000,   0.00000,   0.00000,   0.00000,   0.00000,0.00000,1,  100.0,   485.000,   121.250,   1,1.0000
    64,'1 ',   100.000,     0.000,   200.700,  -128.400,   1.00000,     0,   100.000,   0.00000,   0.00000,   0.00000,   0.00000,0.00000,1,  100.0,   485.000,   121.250,   1,1.0000
    64,'1 ',   100.000,     0.000,   195.300,  -132.500,   1.00000,     0,   100.000,   0.00000,   0.00000,   0.00000,   0.00000,0.00000,1,  100.0,   485.000,   121.250,   1,1.0000
    64,'1 ',   100.000,     0.000,     5.200,    -5.200,   1.00000,     0,   100.000,   0.00000,   0.00000,   0.00000,   0.00000,0.00000,1,  100.0,    13.000,     3.250,   1,1.0000
    64,'1 ',   100.000,     0.000,     5.200,    -5.200,   1.00000,     0,   100.000,   0.00000,   0.00000,   0.00000,   0.00000,0.00000,1,  100.0,    13.000,     3.250,   1,1.0000
    47,'1 ',   100.000,     0.000,    90.100,  -109.500,   1.00000,     0,   100.000,   0.00000,   0.00000,   0.00000,   0.00000,0.00000,1,  100.0,   210.000,    52.500,   1,1.0000
    47,'1 ',   100.000,     0.000,    90.300,  -109.200,   1.00000,     0,   100.000,   0.00000,   0.00000,   0.00000,   0.00000,0.00000,1,  100.0,   210.000,    52.500,   1,1.0000
    47,'1 ',   100.000,     0.000,   115.700,  -117.400,   1.00000,     0,   100.000,   0.00000,   0.00000,   0.00000,   0.00000,0.00000,1,  100.0,   245.000,    61.250,   1,1.0000
   165,'1 ',   100.000,     0.000,   264.000,  -261.200,   1.00000,     0,   100.000,   0.00000,   0.00000,   0.00000,   0.00000,0.00000,1,  100.0,   685.000,   171.250,   1,1.0000
   165,'1 ',   100.000,     0.000,   264.500,  -260.800,   1.00000,     0,   100.000,   0.00000,   0.00000,   0.00000,   0.00000,0.00000,1,  100.0,   685.000,   171.250,   1,1.0000
   165,'1 ',   100.000,     0.000,     0.000,     0.000,   1.00000,     0,   100.000,   0.00000,   0.00000,   0.00000,   0.00000,0.00000,1,  100.0,     0.000,     0.000,   1,1.0000
   165,'1 ',   100.000,     0.000,    14.000,   -14.000,   1.00000,     0,   100.000,   0.00000,   0.00000,   0.00000,   0.00000,0.00000,1,  100.0,    35.000,     8.750,   1,1.0000
   165,'1 ',   100.000,     0.000,    14.000,   -14.000,   1.00000,     0,   100.000,   0.00000,   0.00000,   0.00000,   0.00000,0.00000,1,  100.0,    35.000,     8.750,   1,1.0000
   165,'1 ',   100.000,     0.000,    14.000,   -14.000,   1.00000,     0,   100.000,   0.00000,   0.00000,   0.00000,   0.00000,0.00000,1,  100.0,    35.000,     8.750,   1,1.0000
    16,'1 ',   100.000,     0.000,   133.800,  -138.200,   1.00000,     0,   100.000,   0.00000,   0.00000,   0.00000,   0.00000,0.00000,1,  100.0,   324.000,    81.000,   1,1.0000
    16,'1 ',   100.000,     0.000,   133.800,  -138.200,   1.00000,     0,   100.000,   0.00000,   0.00000,   0.00000,   0.00000,0.00000,1,  100.0,   324.000,    81.000,   1,1.0000
    16,'1 ',   100.000,     0.000,   114.900,  -134.200,   1.00000,     0,   100.000,   0.00000,   0.00000,   0.00000,   0.00000,0.00000,1,  100.0,   288.000,    72.000,   1,1.0000
    86,'1 ',   100.000,     0.000,   109.100,  -120.100,   1.00000,     0,   100.000,   0.00000,   0.00000,   0.00000,   0.00000,0.00000,1,  100.0,   226.700,    56.675,   1,1.0000
    86,'1 ',   100.000,     0.000,   110.900,  -118.900,   1.00000,     0,   100.000,   0.00000,   0.00000,   0.00000,   0.00000,0.00000,1,  100.0,   226.700,    56.675,   1,1.0000
    86,'1 ',   100.000,     0.000,   121.300,  -112.600,   1.00000,     0,   100.000,   0.00000,   0.00000,   0.00000,   0.00000,0.00000,1,  100.0,   226.700,    56.675,   1,1.0000
    49,'1 ',   100.000,     0.000,   170.000,  -148.100,   1.00000,     0,   100.000,   0.00000,   0.00000,   0.00000,   0.00000,0.00000,1,  100.0,   500.000,   125.000,   1,1.0000
    49,'1 ',   100.000,     0.000,   193.200,  -129.300,   1.00000,     0,   100.000,   0.00000,   0.00000,   0.00000,   0.00000,0.00000,1,  100.0,   500.000,   125.000,   1,1.0000
    49,'1 ',   100.000,     0.000,   193.100,  -129.300,   1.00000,     0,   100.000,   0.00000,   0.00000,   0.00000,   0.00000,0.00000,1,  100.0,   500.000,   125.000,   1,1.0000
    49,'1 ',   100.000,     0.000,   177.600,   -79.500,   1.00000,     0,   100.000,   0.00000,   0.00000,   0.00000,   0.00000,0.00000,1,  100.0,   500.000,   125.000,   1,1.0000
    49,'1 ',   100.000,     0.000,     0.000,    -0.000,   1.00000,     0,   100.000,   0.00000,   0.00000,   0.00000,   0.00000,0.00000,1,  100.0,     0.000,     0.000,   1,1.0000
    49,'1 ',   100.000,     0.000,     4.000,    -4.000,   1.00000,     0,   100.000,   0.00000,   0.00000,   0.00000,   0.00000,0.00000,1,  100.0,    10.000,     2.500,   1,1.0000
    49,'1 ',   100.000,     0.000,     0.000,    -0.000,   1.00000,     0,   100.000,   0.00000,   0.00000,   0.00000,   0.00000,0.00000,1,  100.0,     0.000,     0.000,   1,1.0000
    49,'1 ',   100.000,     0.000,     4.400,    -4.400,   1.00000,     0,   100.000,   0.00000,   0.00000,   0.00000,   0.00000,0.00000,1,  100.0,    11.000,     2.750,   1,1.0000
   144,'1 ',   100.000,     0.000,   176.200,  -156.800,   1.00000,     0,   100.000,   0.00000,   0.00000,   0.00000,   0.00000,0.00000,1,  100.0,   270.000,    67.500,   1,1.0000
...